data/psse_cases/IEEE39_paper_aligned_mixed_v2.raw
0,   100.00, 33, 0, 1, 60.00     / PSS(R)E-33.4    FRI, AUG 28 2026   2:52
ENGLAND 39 BUS SYSTEM
LOAD LEVEL
     1,' LBUS01     ', 345.0000,1,   1,   1,   1,1.04668, -12.8624,1.10000,0.90000,1.10000,0.90000
     2,' LBUS02     ', 345.0000,1,   1,   1,   1,1.04446, -11.5235,1.10000,0.90000,1.10000,0.90000
     3,' LBUS03     ', 345.0000,1,   1,   1,   1,1.01734, -14.3509,1.10000,0.90000,1.10000,0.90000
     4,' LBUS04     ', 345.0000,1,   1,   1,   1,0.98901, -13.6845,1.10000,0.90000,1.10000,0.90000
     5,' LBUS05     ', 345.0000,2,   1,   1,   1,0.98868, -11.5497,1.10000,0.90000,1.10000,0.90000
     6,' LBUS06     ', 345.0000,1,   1,   1,   1,0.99180, -10.7771,1.10000,0.90000,1.10000,0.90000
     7,' LBUS07     ', 345.0000,1,   1,   1,   1,0.97641, -13.0233,1.10000,0.90000,1.10000,0.90000
     8,' LBUS08     ', 345.0000,1,   1,   1,   1,0.97476, -13.5354,1.10000,0.90000,1.10000,0.90000
     9,' LBUS09     ', 345.0000,2,   1,   1,   1,1.01990, -13.0303,1.10000,0.90000,1.10000,0.90000
    10,' LBUS10     ', 345.0000,1,   1,   1,   1,1.00635,  -8.9805,1.10000,0.90000,1.10000,0.90000
    11,' LBUS11     ', 345.0000,1,   1,   1,   1,1.00028,  -9.5990,1.10000,0.90000,1.10000,0.90000
    12,' LBUS12     ', 154.0000,1,   1,   1,   1,0.98790,  -9.7500,1.10000,0.90000,1.10000,0.90000
    13,' LBUS13     ', 345.0000,1,   1,   1,   1,1.00299,  -9.7927,1.10000,0.90000,1.10000,0.90000
    14,' LBUS14     ', 345.0000,2,   1,   1,   1,0.99969, -11.7325,1.10000,0.90000,1.10000,0.90000
    15,' LBUS15     ', 345.0000,1,   1,   1,   1,1.00623, -13.5698,1.10000,0.90000,1.10000,0.90000
    16,' LBUS16     ', 345.0000,1,   1,   1,   1,1.02391, -12.7359,1.10000,0.90000,1.10000,0.90000
    17,' LBUS17     ', 345.0000,1,   1,   1,   1,1.02062, -13.8906,1.10000,0.90000,1.10000,0.90000
    18,' LBUS18     ', 345.0000,1,   1,   1,   1,1.01151, -14.9434,1.10000,0.90000,1.10000,0.90000
    19,' LBUS19     ', 345.0000,1,   1,   1,   1,1.04716,  -7.9445,1.10000,0.90000,1.10000,0.90000
    20,' LBUS20     ', 345.0000,1,   1,   1,   1,0.98989,  -9.2559,1.10000,0.90000,1.10000,0.90000
    21,' LBUS21     ', 345.0000,1,   1,   1,   1,1.02705, -10.7086,1.10000,0.90000,1.10000,0.90000
    22,' LBUS22     ', 345.0000,1,   1,   1,   1,1.04774,  -6.6408,1.10000,0.90000,1.10000,0.90000
    23,' LBUS23     ', 345.0000,1,   1,   1,   1,1.04278,  -6.8648,1.10000,0.90000,1.10000,0.90000
    24,' LBUS24     ', 345.0000,1,   1,   1,   1,1.03055, -12.7393,1.10000,0.90000,1.10000,0.90000
    25,' LBUS25     ', 345.0000,1,   1,   1,   1,1.05244, -10.4422,1.10000,0.90000,1.10000,0.90000
    26,' LBUS26     ', 345.0000,2,   1,   1,   1,1.04677, -11.7643,1.10000,0.90000,1.10000,0.90000
    27,' LBUS27     ', 345.0000,1,   1,   1,   1,1.02871, -13.9105,1.10000,0.90000,1.10000,0.90000
    28,' LBUS28     ', 345.0000,1,   1,   1,   1,1.04866,  -9.0250,1.10000,0.90000,1.10000,0.90000
    29,' LBUS29     ', 345.0000,1,   1,   1,   1,1.04929,  -6.5087,1.10000,0.90000,1.10000,0.90000
    30,' GBUS30     ',  22.0000,2,   1,   1,   1,1.04750,  -9.2767,1.10000,0.90000,1.10000,0.90000
    31,' GBUS31     ',  22.0000,3,   1,   1,   1,0.98200,   0.0000,1.10000,0.90000,1.10000,0.90000
    32,' GBUS32     ',  22.0000,2,   1,   1,   1,0.98310,  -1.5096,1.10000,0.90000,1.10000,0.90000
    33,' GBUS33     ',  22.0000,2,   1,   1,   1,0.99720,  -2.7208,1.10000,0.90000,1.10000,0.90000
    34,' GBUS34     ',  22.0000,2,   1,   1,   1,1.01230,  -4.4608,1.10000,0.90000,1.10000,0.90000
    35,' GBUS35     ',  22.0000,2,   1,   1,   1,1.04930,  -2.0441,1.10000,0.90000,1.10000,0.90000
    36,' GBUS36     ',  22.0000,2,   1,   1,   1,1.06350,   0.4053,1.10000,0.90000,1.10000,0.90000
    37,' GBUS37     ',  22.0000,2,   1,   1,   1,1.02780,  -4.1456,1.10000,0.90000,1.10000,0.90000
    38,' GBUS38     ',  22.0000,2,   1,   1,   1,1.02650,   0.0243,1.10000,0.90000,1.10000,0.90000
    39,' GBUS39     ', 345.0000,2,   1,   1,   1,1.03000, -13.6391,1.10000,0.90000,1.10000,0.90000
   504,' LBUS504    ', 345.0000,1,   1,   1,   1,0.98326, -14.5702,1.10000,0.90000,1.10000,0.90000
   507,' LBUS507    ', 345.0000,1,   1,   1,   1,0.97284, -13.4472,1.10000,0.90000,1.10000,0.90000
   508,' LBUS508    ', 345.0000,1,   1,   1,   1,0.96690, -14.4893,1.10000,0.90000,1.10000,0.90000
   518,' LBUS518    ', 345.0000,1,   1,   1,   1,1.00813, -15.2192,1.10000,0.90000,1.10000,0.90000
0 / END OF BUS DATA, BEGIN LOAD DATA
     3,'1 ',1,   1,   1,     0.000,     0.000,   317.268,     0.000,     0.000,    -2.330,   1,1,0
     5,'D ',1,   1,   1,    75.000,     0.000,     0.000,     0.000,     0.000,     0.000,   1,0,0
     9,'D ',1,   1,   1,    75.000,     0.000,     0.000,     0.000,     0.000,     0.000,   1,0,0
    12,'1 ',1,   1,   1,     0.000,     0.000,     7.607,     0.000,     0.000,   -90.532,   1,1,0
    14,'D ',1,   1,   1,    75.000,     0.000,     0.000,     0.000,     0.000,     0.000,   1,0,0
    15,'1 ',1,   1,   1,     0.000,     0.000,   318.858,     0.000,     0.000,  -151.910,   1,1,0
    16,'1 ',1,   1,   1,     0.000,     0.000,   322.565,     0.000,     0.000,   -30.973,   1,1,0
    18,'1 ',1,   1,   1,     0.000,     0.000,   156.617,     0.000,     0.000,   -29.477,   1,1,0
    20,'1 ',1,   1,   1,     0.000,     0.000,   634.951,     0.000,     0.000,  -105.293,   1,1,0
    21,'1 ',1,   1,   1,     0.000,     0.000,   267.497,     0.000,     0.000,  -109.606,   1,1,0
    23,'1 ',1,   1,   1,     0.000,     0.000,   237.830,     0.000,     0.000,   -78.118,   1,1,0
    24,'1 ',1,   1,   1,     0.000,     0.000,   300.293,     0.000,     0.000,    87.303,   1,1,0
    25,'1 ',1,   1,   1,     0.000,     0.000,   212.953,     0.000,     0.000,   -42.659,   1,1,0
    26,'1 ',1,   1,   1,     0.000,     0.000,   133.193,     0.000,     0.000,   -15.609,   1,1,0
    26,'D ',1,   1,   1,    75.000,     0.000,     0.000,     0.000,     0.000,     0.000,   1,0,0
    27,'1 ',1,   1,   1,     0.000,     0.000,   273.944,     0.000,     0.000,   -71.756,   1,1,0
    28,'1 ',1,   1,   1,     0.000,     0.000,   196.990,     0.000,     0.000,   -25.239,   1,1,0
    29,'1 ',1,   1,   1,     0.000,     0.000,   270.791,     0.000,     0.000,   -24.542,   1,1,0
    31,'1 ',1,   1,   1,     0.000,     0.000,     9.369,     0.000,     0.000,    -4.770,   1,1,0
    39,'1 ',1,   1,   1,     0.000,     0.000,  1071.845,     0.000,     0.000,  -235.649,   1,1,0
   504,'1 ',1,   1,   1,     0.000,     0.000,   203.849,     0.000,     0.000,   -76.460,   1,1,0
   504,'2 ',1,   1,   1,     0.000,     0.000,   203.849,     0.000,     0.000,   -76.460,   1,1,0
   504,'3 ',1,   1,   1,     0.000,     0.000,   101.925,     0.000,     0.000,   -38.230,   1,1,0
   507,'1 ',1,   1,   1,     0.000,     0.000,    96.327,     0.000,     0.000,   -48.060,   1,1,0
   507,'2 ',1,   1,   1,     0.000,     0.000,    96.327,     0.000,     0.000,   -48.060,   1,1,0
   507,'3 ',1,   1,   1,     0.000,     0.000,    48.164,     0.000,     0.000,   -25.462,   1,1,0
   508,'1 ',1,   1,   1,     0.000,     0.000,   216.388,     0.000,     0.000,  -108.582,   1,1,0
   508,'2 ',1,   1,   1,     0.000,     0.000,   216.388,     0.000,     0.000,  -108.582,   1,1,0
   508,'3 ',1,   1,   1,     0.000,     0.000,   108.194,     0.000,     0.000,   -49.404,   1,1,0
   518,'1 ',1,   1,   1,     0.000,     0.000,    62.857,     0.000,     0.000,   -44.810,   1,1,0
   518,'2 ',1,   1,   1,     0.000,     0.000,    62.857,     0.000,     0.000,   -44.810,   1,1,0
   518,'3 ',1,   1,   1,     0.000,     0.000,    36.600,     0.000,     0.000,   -21.762,   1,1,0
0 / END OF LOAD DATA, BEGIN FIXED SHUNT DATA
0 / END OF FIXED SHUNT DATA, BEGIN GENERATOR DATA
     5,'1 ',   150.000,     0.000,     0.000,     0.000,0.98661,     0,   166.667, 0.00000E+0, 9.99990E+4, 0.00000E+0, 0.00000E+0,1.00000,1,  100.0,   166.667,     0.000,   1,1.0000,    ,      ,    ,      ,    ,      ,2, 1.0000
     9,'1 ',   150.000,     0.000,     0.000,     0.000,1.01858,     0,   166.667, 0.00000E+0, 9.99990E+4, 0.00000E+0, 0.00000E+0,1.00000,1,  100.0,   166.667,     0.000,   1,1.0000,    ,      ,    ,      ,    ,      ,2, 1.0000
    14,'1 ',   150.000,     0.000,     0.000,     0.000,0.99729,     0,   166.667, 0.00000E+0, 9.99990E+4, 0.00000E+0, 0.00000E+0,1.00000,1,  100.0,   166.667,     0.000,   1,1.0000,    ,      ,    ,      ,    ,      ,2, 1.0000
    26,'1 ',   150.000,     0.000,     0.000,     0.000,1.04360,     0,   166.667, 0.00000E+0, 9.99990E+4, 0.00000E+0, 0.00000E+0,1.00000,1,  100.0,   166.667,     0.000,   1,1.0000,    ,      ,    ,      ,    ,      ,2, 1.0000
    30,'1 ',   231.194,   169.542,  9900.000, -9999.000,1.04750,     0,   300.000, 0.00000E+0, 2.24000E-1, 0.00000E+0, 0.00000E+0,1.00000,1,  100.0,  9999.000, -9999.000,   1,0.2500,   1,0.2500,   1,0.2500,   1,0.2500
    31,'1 ',   690.804,   281.016,  9900.000, -9999.000,0.98200,     0,   612.000, 0.00000E+0, 2.02900E-1, 0.00000E+0, 0.00000E+0,1.00000,1,  100.0,  9999.000, -9999.000,   1,0.2500,   1,0.2500,   1,0.2500,   1,0.2500
    32,'1 ',   601.103,   248.577,  9900.000, -9999.000,0.98310,     0,   765.000, 0.00000E+0, 2.80500E-1, 0.00000E+0, 0.00000E+0,1.00000,1,  100.0,  9999.000, -9999.000,   1,0.2500,   1,0.2500,   1,0.2500,   1,0.2500
    33,'1 ',   632.000,   127.652,   207.728,  -207.728,0.99720,     0,   700.000, 0.00000E+0, 2.33000E-1, 0.00000E+0, 0.00000E+0,1.00000,1,  100.0,  9999.000, -9999.000,   1,0.2500,   1,0.2500,   1,0.2500,   1,0.2500,2, 0.9500
    34,'1 ',   469.785,   171.515,  9900.000, -9999.000,1.01230,     0,   613.000, 0.00000E+0, 2.02900E-1, 0.00000E+0, 0.00000E+0,1.00000,1,  100.0,  9999.000, -9999.000,   1,0.2500,   1,0.2500,   1,0.2500,   1,0.2500
    35,'1 ',   601.103,   223.062,  9900.000, -9999.000,1.04930,     0,   798.000, 0.00000E+0, 3.14000E-1, 0.00000E+0, 0.00000E+0,1.00000,1,  100.0,  9999.000, -9999.000,   1,0.2500,   1,0.2500,   1,0.2500,   1,0.2500
    36,'1 ',   517.874,   104.263,  9900.000, -9999.000,1.06350,     0,   660.000, 0.00000E+0, 2.15000E-1, 0.00000E+0, 0.00000E+0,1.00000,1,  100.0,  9999.000, -9999.000,   1,0.2500,   1,0.2500,   1,0.2500,   1,0.2500
    37,'1 ',   499.378,    19.078,  9900.000, -9999.000,1.02780,     0,   660.000, 0.00000E+0, 2.15000E-1, 0.00000E+0, 0.00000E+0,1.00000,1,  100.0,  9999.000, -9999.000,   1,0.2500,   1,0.2500,   1,0.2500,   1,0.2500
    38,'1 ',   767.563,    22.826,  9900.000, -9999.000,1.02650,     0,  1151.000, 0.00000E+0, 2.46000E-1, 0.00000E+0, 0.00000E+0,1.00000,1,  100.0,  9999.000, -9999.000,   1,0.2500,   1,0.2500,   1,0.2500,   1,0.2500
    39,'1 ',  1000.001,   124.258,  9900.000, -9999.000,1.03000,     0,   100.000, 0.00000E+0, 5.00000E-3, 0.00000E+0, 0.00000E+0,1.00000,1,  100.0,  9999.000, -9999.000,   1,0.2500,   1,0.2500,   1,0.2500,   1,0.2500
0 / END OF GENERATOR DATA, BEGIN BRANCH DATA
     1,     2,'1 ', 3.50000E-3, 4.11000E-2,   0.69870,    0.00,    0.00,    0.00,  0.00000,  0.00000,  0.00000,  0.00000,1,1,   0.00,   1,1.0000
     1,    39,'1 ', 1.00000E-3, 2.50000E-2,   0.75000,    0.00,    0.00,    0.00,  0.00000,  0.00000,  0.00000,  0.00000,1,1,   0.00,   1,1.0000
     2,     3,'1 ', 1.30000E-3, 1.51000E-2,   0.25720,    0.00,    0.00,    0.00,  0.00000,  0.00000,  0.00000,  0.00000,1,1,   0.00,   1,1.0000
     2,    25,'1 ', 7.00000E-3, 8.60000E-3,   0.14600,    0.00,    0.00,    0.00,  0.00000,  0.00000,  0.00000,  0.00000,1,1,   0.00,   1,1.0000
     3,     4,'1 ', 1.30000E-3, 2.13000E-2,   0.22140,    0.00,    0.00,    0.00,  0.00000,  0.00000,  0.00000,  0.00000,1,1,   0.00,   1,1.0000
     3,    18,'1 ', 1.10000E-3, 1.33000E-2,   0.21380,    0.00,    0.00,    0.00,  0.00000,  0.00000,  0.00000,  0.00000,1,1,   0.00,   1,1.0000
     4,     5,'1 ', 8.00000E-4, 1.28000E-2,   0.13420,    0.00,    0.00,    0.00,  0.00000,  0.00000,  0.00000,  0.00000,1,1,   0.00,   1,1.0000
     4,    14,'1 ', 8.00000E-4, 1.29000E-2,   0.13820,    0.00,    0.00,    0.00,  0.00000,  0.00000,  0.00000,  0.00000,1,1,   0.00,   1,1.0000
     5,     6,'1 ', 2.00000E-4, 2.60000E-3,   0.04340,    0.00,    0.00,    0.00,  0.00000,  0.00000,  0.00000,  0.00000,1,1,   0.00,   1,1.0000
     5,     8,'1 ', 8.00000E-4, 1.12000E-2,   0.14760,    0.00,    0.00,    0.00,  0.00000,  0.00000,  0.00000,  0.00000,1,1,   0.00,   1,1.0000
     6,     7,'1 ', 6.00000E-4, 9.20000E-3,   0.11300,    0.00,    0.00,    0.00,  0.00000,  0.00000,  0.00000,  0.00000,1,1,   0.00,   1,1.0000
     6,    11,'1 ', 7.00000E-4, 8.20000E-3,   0.13890,    0.00,    0.00,    0.00,  0.00000,  0.00000,  0.00000,  0.00000,1,1,   0.00,   1,1.0000
     7,     8,'1 ', 4.00000E-4, 4.60000E-3,   0.07800,    0.00,    0.00,    0.00,  0.00000,  0.00000,  0.00000,  0.00000,1,1,   0.00,   1,1.0000
     8,     9,'1 ', 2.30000E-3, 3.63000E-2,   0.38040,    0.00,    0.00,    0.00,  0.00000,  0.00000,  0.00000,  0.00000,1,1,   0.00,   1,1.0000
     9,    39,'1 ', 1.00000E-3, 2.50000E-2,   1.20000,    0.00,    0.00,    0.00,  0.00000,  0.00000,  0.00000,  0.00000,1,1,   0.00,   1,1.0000
    10,    11,'1 ', 4.00000E-4, 4.30000E-3,   0.07290,    0.00,    0.00,    0.00,  0.00000,  0.00000,  0.00000,  0.00000,1,1,   0.00,   1,1.0000
    10,    13,'1 ', 4.00000E-4, 4.30000E-3,   0.07290,    0.00,    0.00,    0.00,  0.00000,  0.00000,  0.00000,  0.00000,1,1,   0.00,   1,1.0000
    13,    14,'1 ', 9.00000E-4, 1.01000E-2,   0.17230,    0.00,    0.00,    0.00,  0.00000,  0.00000,  0.00000,  0.00000,1,1,   0.00,   1,1.0000
    14,    15,'1 ', 1.80000E-3, 2.17000E-2,   0.36600,    0.00,    0.00,    0.00,  0.00000,  0.00000,  0.00000,  0.00000,1,1,   0.00,   1,1.0000
    15,    16,'1 ', 9.00000E-4, 9.40000E-3,   0.17100,    0.00,    0.00,    0.00,  0.00000,  0.00000,  0.00000,  0.00000,1,1,   0.00,   1,1.0000
    16,    17,'1 ', 7.00000E-4, 8.90000E-3,   0.13420,    0.00,    0.00,    0.00,  0.00000,  0.00000,  0.00000,  0.00000,1,1,   0.00,   1,1.0000
    16,    19,'1 ', 1.60000E-3, 1.95000E-2,   0.30400,    0.00,    0.00,    0.00,  0.00000,  0.00000,  0.00000,  0.00000,1,1,   0.00,   1,1.0000
    16,    21,'1 ', 8.00000E-4, 1.35000E-2,   0.25480,    0.00,    0.00,    0.00,  0.00000,  0.00000,  0.00000,  0.00000,1,1,   0.00,   1,1.0000
    16,    24,'1 ', 3.00000E-4, 5.90000E-3,   0.06800,    0.00,    0.00,    0.00,  0.00000,  0.00000,  0.00000,  0.00000,1,1,   0.00,   1,1.0000
    17,    18,'1 ', 7.00000E-4, 8.20000E-3,   0.13190,    0.00,    0.00,    0.00,  0.00000,  0.00000,  0.00000,  0.00000,1,1,   0.00,   1,1.0000
    17,    27,'1 ', 1.30000E-3, 1.73000E-2,   0.32160,    0.00,    0.00,    0.00,  0.00000,  0.00000,  0.00000,  0.00000,1,1,   0.00,   1,1.0000
    21,    22,'1 ', 8.00000E-4, 1.40000E-2,   0.25650,    0.00,    0.00,    0.00,  0.00000,  0.00000,  0.00000,  0.00000,1,1,   0.00,   1,1.0000
    22,    23,'1 ', 6.00000E-4, 9.60000E-3,   0.18460,    0.00,    0.00,    0.00,  0.00000,  0.00000,  0.00000,  0.00000,1,1,   0.00,   1,1.0000
    23,    24,'1 ', 2.20000E-3, 3.50000E-2,   0.36100,    0.00,    0.00,    0.00,  0.00000,  0.00000,  0.00000,  0.00000,1,1,   0.00,   1,1.0000
    25,    26,'1 ', 3.20000E-3, 3.23000E-2,   0.51300,    0.00,    0.00,    0.00,  0.00000,  0.00000,  0.00000,  0.00000,1,1,   0.00,   1,1.0000
    26,    27,'1 ', 1.40000E-3, 1.47000E-2,   0.23960,    0.00,    0.00,    0.00,  0.00000,  0.00000,  0.00000,  0.00000,1,1,   0.00,   1,1.0000
    26,    28,'1 ', 4.30000E-3, 4.74000E-2,   0.78020,    0.00,    0.00,    0.00,  0.00000,  0.00000,  0.00000,  0.00000,1,1,   0.00,   1,1.0000
    26,    29,'1 ', 5.70000E-3, 6.25000E-2,   1.02900,    0.00,    0.00,    0.00,  0.00000,  0.00000,  0.00000,  0.00000,1,1,   0.00,   1,1.0000
    28,    29,'1 ', 1.40000E-3, 1.51000E-2,   0.24900,    0.00,    0.00,    0.00,  0.00000,  0.00000,  0.00000,  0.00000,1,1,   0.00,   1,1.0000
0 / END OF BRANCH DATA, BEGIN TRANSFORMER DATA
     2,    30,     0,'1 ',1,1,1, 0.00000E+0, 0.00000E+0,2,'            ',1,   1,1.0000,   0,1.0000,   0,1.0000,   0,1.0000,'            '
 0.00000E+0, 1.81000E-2,   100.00
1.02500,   0.000,   0.000,     0.00,     0.00,     0.00, 0,      0, 1.10000, 0.90000, 1.10000, 0.90000, 999, 0, 0.00000, 0.00000,  0.000
1.00000,   0.000
     4,   504,     0,'1 ',1,1,1, 0.00000E+0, 0.00000E+0,2,'            ',1,   1,1.0000,   0,1.0000,   0,1.0000,   0,1.0000,'            '
 0.00000E+0, 3.00000E-3,   100.00
1.00000,   0.000,   0.000,     0.00,     0.00,     0.00, 1,     -6, 1.10000, 0.90000, 1.17000, 0.91000,  33, 0, 0.00000, 0.00000,  0.000
1.00000,   0.000
     6,    31,     0,'1 ',1,1,1, 0.00000E+0, 0.00000E+0,2,'            ',1,   1,1.0000,   0,1.0000,   0,1.0000,   0,1.0000,'            '
 0.00000E+0, 2.50000E-2,   100.00
1.06875,   0.000,   0.000,     0.00,     0.00,     0.00, 1,      6, 1.10000, 0.90000, 1.17000, 0.91000,  33, 0, 0.00000, 0.00000,  0.000
1.00000,   0.000
     7,   507,     0,'1 ',1,1,1, 0.00000E+0, 0.00000E+0,2,'            ',1,   1,1.0000,   0,1.0000,   0,1.0000,   0,1.0000,'            '
 0.00000E+0, 3.00000E-3,   100.00
1.00000,   0.000,   0.000,     0.00,     0.00,     0.00, 1,     -6, 1.10000, 0.90000, 1.17000, 0.91000,  33, 0, 0.00000, 0.00000,  0.000
1.00000,   0.000
     8,   508,     0,'1 ',1,1,1, 0.00000E+0, 0.00000E+0,2,'            ',1,   1,1.0000,   0,1.0000,   0,1.0000,   0,1.0000,'            '
 0.00000E+0, 3.00000E-3,   100.00
1.00000,   0.000,   0.000,     0.00,     0.00,     0.00, 1,     -6, 1.10000, 0.90000, 1.17000, 0.91000,  33, 0, 0.00000, 0.00000,  0.000
1.00000,   0.000
    10,    32,     0,'1 ',1,1,1, 0.00000E+0, 0.00000E+0,2,'            ',1,   1,1.0000,   0,1.0000,   0,1.0000,   0,1.0000,'            '
 0.00000E+0, 2.00000E-2,   100.00
1.07000,   0.000,   0.000,     0.00,     0.00,     0.00, 0,      0, 1.10000, 0.90000, 1.10000, 0.90000, 999, 0, 0.00000, 0.00000,  0.000
1.00000,   0.000
    12,    11,     0,'1 ',1,1,1, 0.00000E+0, 0.00000E+0,2,'            ',1,   1,1.0000,   0,1.0000,   0,1.0000,   0,1.0000,'            '
 1.60000E-3, 4.35000E-2,   100.00
1.00600,   0.000,   0.000,     0.00,     0.00,     0.00, 0,      0, 1.10000, 0.90000, 1.10000, 0.90000, 999, 0, 0.00000, 0.00000,  0.000
1.00000,   0.000
    12,    13,     0,'1 ',1,1,1, 0.00000E+0, 0.00000E+0,2,'            ',1,   1,1.0000,   0,1.0000,   0,1.0000,   0,1.0000,'            '
 1.60000E-3, 4.35000E-2,   100.00
1.00600,   0.000,   0.000,     0.00,     0.00,     0.00, 0,      0, 1.10000, 0.90000, 1.10000, 0.90000, 999, 0, 0.00000, 0.00000,  0.000
1.00000,   0.000
    18,   518,     0,'1 ',1,1,1, 0.00000E+0, 0.00000E+0,2,'            ',1,   1,1.0000,   0,1.0000,   0,1.0000,   0,1.0000,'            '
 0.00000E+0, 3.00000E-3,   100.00
1.00000,   0.000,   0.000,     0.00,     0.00,     0.00, 1,     -6, 1.10000, 0.90000, 1.17000, 0.91000,  33, 0, 0.00000, 0.00000,  0.000
1.00000,   0.000
    19,    20,     0,'1 ',1,1,1, 0.00000E+0, 0.00000E+0,2,'            ',1,   1,1.0000,   0,1.0000,   0,1.0000,   0,1.0000,'            '
 7.00000E-4, 1.38000E-2,   100.00
1.06000,   0.000,   0.000,     0.00,     0.00,     0.00, 0,      0, 1.10000, 0.90000, 1.10000, 0.90000, 999, 0, 0.00000, 0.00000,  0.000
1.00000,   0.000
    19,    33,     0,'1 ',1,1,1, 0.00000E+0, 0.00000E+0,2,'            ',1,   1,1.0000,   0,1.0000,   0,1.0000,   0,1.0000,'            '
 7.00000E-4, 1.42000E-2,   100.00
1.07000,   0.000,   0.000,     0.00,     0.00,     0.00, 0,      0, 1.10000, 0.90000, 1.10000, 0.90000, 999, 0, 0.00000, 0.00000,  0.000
1.00000,   0.000
    20,    34,     0,'1 ',1,1,1, 0.00000E+0, 0.00000E+0,2,'            ',1,   1,1.0000,   0,1.0000,   0,1.0000,   0,1.0000,'            '
 9.00000E-4, 1.80000E-2,   100.00
1.00900,   0.000,   0.000,     0.00,     0.00,     0.00, 0,      0, 1.10000, 0.90000, 1.10000, 0.90000, 999, 0, 0.00000, 0.00000,  0.000
1.00000,   0.000
    22,    35,     0,'1 ',1,1,1, 0.00000E+0, 0.00000E+0,2,'            ',1,   1,1.0000,   0,1.0000,   0,1.0000,   0,1.0000,'            '
 0.00000E+0, 1.43000E-2,   100.00
1.02500,   0.000,   0.000,     0.00,     0.00,     0.00, 0,      0, 1.10000, 0.90000, 1.10000, 0.90000, 999, 0, 0.00000, 0.00000,  0.000
1.00000,   0.000
    23,    36,     0,'1 ',1,1,1, 0.00000E+0, 0.00000E+0,2,'            ',1,   1,1.0000,   0,1.0000,   0,1.0000,   0,1.0000,'            '
 5.00000E-4, 2.72000E-2,   100.00
1.00000,   0.000,   0.000,     0.00,     0.00,     0.00, 0,      0, 1.10000, 0.90000, 1.10000, 0.90000, 999, 0, 0.00000, 0.00000,  0.000
1.00000,   0.000
    25,    37,     0,'1 ',1,1,1, 0.00000E+0, 0.00000E+0,2,'            ',1,   1,1.0000,   0,1.0000,   0,1.0000,   0,1.0000,'            '
 6.00000E-4, 2.32000E-2,   100.00
1.02500,   0.000,   0.000,     0.00,     0.00,     0.00, 0,      0, 1.10000, 0.90000, 1.10000, 0.90000, 999, 0, 0.00000, 0.00000,  0.000
1.00000,   0.000
    29,    38,     0,'1 ',1,1,1, 0.00000E+0, 0.00000E+0,2,'            ',1,   1,1.0000,   0,1.0000,   0,1.0000,   0,1.0000,'            '
 8.00000E-4, 1.56000E-2,   100.00
1.02500,   0.000,   0.000,     0.00,     0.00,     0.00, 0,      0, 1.10000, 0.90000, 1.10000, 0.90000, 999, 0, 0.00000, 0.00000,  0.000
1.00000,   0.000
0 / END OF TRANSFORMER DATA, BEGIN AREA DATA
0 / END OF AREA DATA, BEGIN TWO-TERMINAL DC DATA
0 / END OF TWO-TERMINAL DC DATA, BEGIN VSC DC LINE DATA
0 / END OF VSC DC LINE DATA, BEGIN IMPEDANCE CORRECTION DATA
0 / END OF IMPEDANCE CORRECTION DATA, BEGIN MULTI-TERMINAL DC DATA
0 / END OF MULTI-TERMINAL DC DATA, BEGIN MULTI-SECTION LINE DATA
0 / END OF MULTI-SECTION LINE DATA, BEGIN ZONE DATA
0 / END OF ZONE DATA, BEGIN INTER-AREA TRANSFER DATA
0 / END OF INTER-AREA TRANSFER DATA, BEGIN OWNER DATA
0 / END OF OWNER DATA, BEGIN FACTS DEVICE DATA
0 / END OF FACTS DEVICE DATA, BEGIN SWITCHED SHUNT DATA
0 / END OF SWITCHED SHUNT DATA, BEGIN GNE DATA
0 / END OF GNE DATA, BEGIN INDUCTION MACHINE DATA
0 / END OF INDUCTION MACHINE DATA
Q
